; Filename: Networks/BWFLnet_noTCV_noPSV_mergedem_new_bothPSV_new.inp
; WNTR: 0.4.2
; Created: 2024-03-05 16:40:35
[TITLE]

[JUNCTIONS]
;ID                      Elevation       Demand Pattern                 
 node_0038                  37.472641   0.32970410905 DMA2_upper1                ;
 node_0041                  42.304933   0.38982591214 DMA2_upper1                ;
 node_0055                  83.295776  0.074877975284 DMA2_upper1                ;
 node_0056                  45.395528   0.33800160811 DMA2_upper1                ;
 node_0070                  14.934464  0.017417089202 DMA2_upper1                ;
 node_0071                  83.076583   0.61000129691 DMA2_upper1                ;
 node_0104                  45.328371   0.11051204225 DMA2_upper1                ;
 node_0107                  25.219164  0.034772404034 DMA2_upper1                ;
 node_0111                  45.379492   0.59194005388 DMA2_upper1                ;
 node_0116                  25.299657 0.0049208813491 DMA2_upper1                ;
 node_0133                  82.522552  0.099576338131 DMA2_upper1                ;
 node_0154                  28.121197               0                            ;
 node_0159                  40.214785   0.14910651644 DMA2_upper1                ;
 node_0160                  15.917638    0.1510513559 DMA2_upper1                ;
 node_0168                  27.461259 0.0017301288492 DMA2_upper1                ;
 node_0173                  30.089888  0.070858190652 DMA2_upper1                ;
 node_0183                  77.674321   0.16854930836 DMA2_upper1                ;
 node_0210                  77.513405   0.16204622797 DMA2_upper1                ;
 node_0246                  71.562474   0.82501043018 DMA2_upper1                ;
 node_0307                  72.396093   0.30718728011 DMA2_upper1                ;
 node_0328                  61.146522  0.001900728007 DMA2_upper1                ;
 node_0334                  73.180132   0.16921696293 DMA2_upper1                ;
 node_0348                   66.05854  0.034695768209 DMA2_upper1                ;
 node_0354                      46.37   0.32481885766 DMA1_upper1                ;
 node_0388                  72.093517    0.1352572496 DMA2_upper1                ;
 node_0404                  66.237974   0.13552507726 DMA2_upper1                ;
 node_0468                     73.449 0.0026798711506 DMA2_upper1                ;
 node_0469                     73.449               0                            ;
 node_0470                  73.019996  0.057344629821 DMA2_upper1                ;
 node_0473                   39.55137   0.15330463934 DMA2_upper1                ;
 node_0526                  49.754813    0.2800030884 DMA1_upper1                ;
 node_0593                  40.855083  0.048041644394 DMA2_upper1                ;
 node_0595                      40.85         0.00882 DMA2_upper1                ;
 node_0600                  52.945876   0.21968659904 DMA2_upper1                ;
 node_0608                  53.021005  0.060700044614 DMA2_upper1                ;
 node_0618                  53.047933  0.016058867398 DMA2_upper1                ;
 node_0640                  42.317869        0.013565 DMA2_lower2                ;
 node_0647                      42.36               0                            ;
 node_0648                  42.515028  0.078120394785 DMA2_upper1                ;
 node_0660                  53.731352               0                            ;
 node_0663                  53.732958               0                            ;
 node_0666                   53.73146 0.0080874823613 DMA2_upper1                ;
 node_0667                  53.776299               0                            ;
 node_0668                  53.789872               0                            ;
 node_0676                  53.803288 0.0058563800884 DMA2_upper1                ;
 node_0679                  53.843655 0.0058125711096 DMA2_upper1                ;
 node_0683                     54.761 0.0029636199116 DMA2_upper1                ;
 node_0684                     54.761  0.015649277569 DMA1_upper1                ;
 node_0712                  42.562841  0.047156108322 DMA2_upper1                ;
 node_0718                  42.509584         0.03969 DMA2_upper1                ;
 node_0723                  52.987605   0.94970222301 DMA1_upper1                ;
 node_0729                  55.275458   0.35350876847 DMA1_upper1                ;
 node_0747                  44.442866   0.12955391629 DMA2_upper1                ;
 node_0755                      56.95        0.035668 DMA1_upper1                ;
 node_0762                  57.035888    1.3661593349 DMA1_upper1                ;
 node_0766                  55.102091   0.11610327442 DMA2_upper1                ;
 node_0769                  44.054583  0.045811620053 DMA2_upper1                ;
 node_0771                  42.995102   0.05165536702 DMA2_upper1                ;
 node_0785                      44.33   0.11625881204 DMA2_upper1                ;
 node_0791                  43.029238   0.54016187209 DMA2_upper1                ;
 node_0814                  43.859012   0.16680894351 DMA2_upper1                ;
 node_0815                  57.412705   0.31886586946 DMA1_upper1                ;
 node_0827                  57.661054  0.086541010556 DMA1_upper1                ;
 node_0836                     58.371               0                            ;
 node_0837                     58.371 0.0038954780966 DMA1_upper1                ;
 node_0868                  64.520559   0.30821678072 DMA1_upper1                ;
 node_0869                   45.48233   0.15649164078 DMA2_upper1                ;
 node_0870                  56.116783        0.007176 DMA1_upper2                ;
 node_0879                  44.922983   0.24359822081 DMA2_upper1                ;
 node_0890                  63.743522  0.099401821472 DMA1_upper1                ;
 node_0907                         58        0.011889 DMA1_upper1                ;
 node_0912                  58.174366   0.18232525272 DMA1_upper1                ;
 node_0913                  64.691425        0.122858                            ;
 node_0916                  64.686118   0.16849971318 DMA1_upper1                ;
 node_0951                  62.486626    0.0293038396 DMA1_upper1                ;
 node_0952                      54.87        0.126821 DMA1_upper1                ;
 node_0959                  48.726783    0.2123526966 DMA1_upper1                ;
 node_0973                  54.890017        0.000845 DMA1_upper2                ;
 node_0979                  62.867121  0.083553929007 DMA1_upper1                ;
 node_0984                  58.524995   0.21709560979 DMA1_upper1                ;
 node_1033                  68.406358   0.44818166081 DMA1_upper1                ;
 node_1037                  57.370318   0.24999549403 DMA1_upper1                ;
 node_1045                  57.409978  0.082200426831 DMA1_upper1                ;
 node_1064                  65.754913   0.11254982883 DMA1_upper1                ;
 node_1078                  65.840502  0.047396646635 DMA1_upper1                ;
 node_1091                  65.907461  0.036403731685 DMA1_upper1                ;
 node_1120                  64.190249   0.17207023689 DMA1_upper1                ;
 node_1121                  64.179249        0.019816 DMA1_upper1                ;
 node_1122                      64.11        0.007697 DMA1_upper2                ;
 node_1137                  59.094566   0.15621435646 DMA2_upper1                ;
 node_1161                  67.526182   0.25006423102 DMA1_upper1                ;
 node_1171                  60.042555   0.20549967178 DMA2_upper1                ;
 node_1194                     67.525    0.2584460212 DMA1_upper1                ;
 node_1195                  53.915856   0.25151068316 DMA2_upper1                ;
 node_1202                     67.803  0.056599231813 DMA1_upper1                ;
 node_1217                  55.069599   0.34265773015 DMA2_upper1                ;
 node_1220                   67.57172   0.13120689474 DMA1_upper1                ;
 node_1223                   59.33046   0.11225374005 DMA1_upper1                ;
 node_1224                  67.787999  0.057514697953 DMA1_upper1                ;
 node_1232                  69.427428  0.053023824735 DMA1_upper1                ;
 node_1234                  69.538684  0.028594913084 DMA1_upper1                ;
 node_1252                  60.451687   0.23998427836 DMA2_upper1                ;
 node_1262                  59.476018               0                            ;
 node_1272                  68.174827   0.29786085594 DMA1_upper1                ;
 node_1284                  71.038657  0.061558376363 DMA1_upper1                ;
 node_1297                  61.115099  0.062376452354 DMA2_upper1                ;
 node_1304                  67.807691   0.45905800001 DMA1_upper1                ;
 node_1311                  70.652135        0.120093 DMA1_upper2                ;
 node_1315                      70.71  0.017958548379 DMA1_upper1                ;
 node_1340                  57.210353   0.15742837954 DMA2_upper1                ;
 node_1342                  59.385127   0.77677878124 DMA2_upper1                ;
 node_1345                  72.893248   0.48445393014 DMA1_upper1                ;
 node_1360                  60.844791    0.1428241284 DMA2_upper1                ;
 node_1363                  57.243299        0.008889 DMA2_lower2                ;
 node_1368                  72.319557   0.14427800355 DMA1_upper1                ;
 node_1371                  59.253145   0.16515743747 DMA2_upper1                ;
 node_1382                  72.513228   0.15991132923 DMA1_upper1                ;
 node_1385                      59.39         0.02205 DMA2_upper1                ;
 node_1386                      60.64  0.032226466691 DMA2_upper1                ;
 node_1388                  60.658186        0.004664 DMA2_lower2                ;
 node_1393                  61.946088  0.048479926335 DMA2_upper1                ;
 node_1399                  61.948681   0.17873401702 DMA2_upper1                ;
 node_1402                      60.73        0.158759                            ;
 node_1404                  63.699641   0.43753154797 DMA2_upper1                ;
 node_1420                      63.61  0.077690479401 DMA1_upper1                ;
 node_1421                      63.61               0                            ;
 node_1457                  60.300601   0.13602338371 DMA2_upper1                ;
 node_1475                  75.306778   0.27833363991 DMA1_upper1                ;
 node_1480                  59.789844     0.325748667 DMA2_upper1                ;
 node_1492                  65.776894  0.032560629172 DMA1_upper1                ;
 node_1522                   56.25276   0.72176541252 DMA2_upper1                ;
 node_1559                  75.935183  0.094905630173 DMA1_upper1                ;
 node_1565                   75.84252   0.38478143455 DMA1_upper1                ;
 node_1575                  75.994044  0.065105993687 DMA1_upper1                ;
 node_1582                  70.260123   0.16342970723 DMA1_upper1                ;
 node_1583                  76.662915        0.027742 DMA1_upper1                ;
 node_1584                   76.86781               0                            ;
 node_1589                  76.917749               0                            ;
 node_1592                  76.922301               0                            ;
 node_1595                  76.974071  0.072143456603 DMA1_upper1                ;
 node_1596                  76.947451               0                            ;
 node_1602                  77.007042               0                            ;
 node_1606                  77.005346               0                            ;
 node_1609                  77.024403  0.030184554289 DMA1_upper1                ;
 node_1615                  76.965734  0.043810295684 DMA1_upper1                ;
 node_1617                  77.034767   0.24410391837 DMA1_upper1                ;
 node_1622                  53.711937    0.2809155585 DMA2_upper1                ;
 node_1629                  57.049073   0.22736375053 DMA2_upper1                ;
 node_1661                  72.589952   0.18503888179 DMA1_upper1                ;
 node_1685                  78.836583        0.000255 DMA1_upper2                ;
 node_1688                   75.19065   0.86244538103 DMA1_upper1                ;
 node_1697                  81.443804   0.24977486927 DMA1_upper1                ;
 node_1711                  81.153169   0.03485989633 DMA1_upper1                ;
 node_1718                  81.379693   0.25819192209 DMA1_upper1                ;
 node_1719                  81.336579  0.061888868439 DMA1_upper1                ;
 node_1738                     65.867   0.30059851629 DMA2_upper1                ;
 node_1772                  70.550087   0.67652470257 DMA1_upper1                ;
 node_1781                     68.696   0.81346098162 DMA1_upper1                ;
 node_1800                   89.72355   0.20167120573 DMA1_upper1                ;
 node_1801                  90.341125               0                            ;
 node_1802                  90.332089               0                            ;
 node_1805                   90.41773               0                            ;
 node_1807                      90.67               0                            ;
 node_1812                  89.906245   0.18401117092 DMA1_upper1                ;
 node_1813                  90.539523         0.00735 DMA1_lower2                ;
 node_1832                  90.087118               0                            ;
 node_1848                  87.601587   0.51483305516 DMA1_upper1                ;
 node_1865                  78.149544   0.26448683453 DMA1_upper1                ;
 node_1872                  79.289707   0.32881525455 DMA1_upper1                ;
 node_1876                     81.201  0.037352797446 DMA1_upper1                ;
 node_1900                      95.92               0                            ;
 node_1901                      95.92               0                            ;
 node_1925                     82.016  0.027978727209 DMA2_upper1                ;
 node_1938                     15.691  0.093577435096 DMA2_upper1                ;
 node_1961                     41.206   0.01648491201 DMA2_upper1                ;
 node_1971                     37.157   0.11085032846 DMA2_upper1                ;
 node_1983                      34.11   0.28520275354 DMA1_upper1                ;
 node_2012                     60.029               0                            ;
 node_2046                     41.391     1.153287369 DMA2_upper1                ;
 node_2112                      55.13        0.031705 DMA1_upper1                ;
 node_2113                     59.562   0.53197121928 DMA1_upper1                ;
 node_2125                      43.23        0.001412 DMA2_lower2                ;
 node_2130                      56.07        0.006528 DMA1_upper2                ;
 node_2140                       43.8         0.03969 DMA2_upper1                ;
 node_2152                      53.84        0.107005 DMA1_upper1                ;
 node_2167                      62.77        0.017604 DMA1_upper2                ;
 node_2168                      56.09               0                            ;
 node_2184                      64.72        0.000336 DMA1_upper2                ;
 node_2188                      66.44  0.071485484048 DMA1_upper1                ;
 node_2197                     44.616   0.45846213298 DMA2_upper1                ;
 node_2199                      53.61  0.083719596461 DMA1_upper1                ;
 node_2206                      55.38               0                            ;
 node_2210                      57.47        0.015853 DMA1_upper1                ;
 node_2220                      57.87        0.004514 DMA1_upper2                ;
 node_2243                     58.877   0.36355409012 DMA2_upper1                ;
 node_2260                      63.99        0.019816 DMA1_upper1                ;
 node_2265                      65.47    0.2166370344 DMA1_upper1                ;
 node_2285                      54.86   0.11123009755 DMA2_upper1                ;
 node_2307                      59.38        0.001968 DMA1_upper2                ;
 node_2350                      58.48   0.16666971629 DMA2_upper1                ;
 node_2354                     46.984   0.24370348663 DMA2_upper1                ;
 node_2428                     76.602               0                            ;
 node_2439                      77.32  0.061436156271 DMA1_upper1                ;
 node_2440                     53.061  0.076155100211 DMA2_upper1                ;
 node_2441                     61.884   0.37836000486 DMA2_upper1                ;
 node_2446                      78.39        0.063411 DMA1_upper1                ;
 node_2456                      80.04          0.0753 DMA1_upper1                ;
 node_2485                     71.595  0.098451817191 DMA1_upper1                ;
 node_2535                     90.956  0.069652202554 DMA1_upper1                ;

[RESERVOIRS]
;ID                                   Head                  Pattern
 node_2547                     126.24                 RES_PATT   ;
 node_2548                     130.58                 RES_PATT   ;

[TANKS]
;ID                              Elevation           Init Level            Min Level            Max Level             Diameter           Min Volume Volume Curve         Overflow            

[PIPES]
;ID                   Node1                Node2                              Length             Diameter            Roughness           Minor Loss               Status
 link_0109            node_0104            node_0111                       2.51      152.399994      118.892141               0                 Open   ;
 link_0354            node_2548            node_2012                       0.51             250      123.603314               0                 Open   ;
 link_0577            node_0595            node_0640                  79.379997      101.599998      109.013402               0                 Open   ;
 link_0631            node_0647            node_0640                       8.73       76.599998      109.013402               0                 Open   ;
 link_0632            node_0648            node_0640                      14.34      101.599998      109.013402               0                 Open   ;
 link_0648            node_0660            node_0608                      50.75             178       61.056034               0                 Open   ;
 link_0655            node_0667            node_0666                       3.37      101.599998       61.056034               0                 Open   ;
 link_0657            node_0668            node_0660                       4.68             178       61.056034               0                 Open   ;
 link_0708            node_0718            node_2125                      49.07       76.599998      109.013402               0                 Open   ;
 link_0709            node_0718            node_0769                 175.630005       76.599998      109.013402               0                 Open   ;
 link_0739            node_2125            node_2140                  96.190002       76.599998      109.013402               0                 Open   ;
 link_0744            node_2130            node_2112                  83.720001       76.199997      110.285592               0                 Open   ;
 link_0754            node_0755            node_2130                  42.130001       76.199997      110.285592               0                 Open   ;
 link_0789            node_0791            node_0771                      15.65             178       91.506789               0                 Open   ;
 link_0791            node_2140            node_0769                  46.830002       76.599998      109.013402               0                 Open   ;
 link_0822            node_0815            node_0827                      20.67             178       75.393101               0                 Open   ;
 link_0875            node_2167            node_0890                      43.27       76.599998       75.393101               0                 Open   ;
 link_0876            node_2168            node_0870                       2.33       50.799999       33.736564               0                 Open   ;
 link_0879            node_0870            node_2152                  84.769997       76.599998      141.356913               0                 Open   ;
 link_0919            node_0907            node_0870                  74.440002       76.599998      141.356913               0                 Open   ;
 link_0920            node_2184            node_0868                  63.220001       76.599998       75.393101               0                 Open   ;
 link_0925            node_0913            node_2184                       4.55       76.599998       75.393101               0                 Open   ;
 link_0928            node_0916            node_0913                       2.08       76.599998       75.393101               0                 Open   ;
 link_0964            node_0952            node_0973                      16.57       76.599998      141.356913               0                 Open   ;
 link_0978            node_2199            node_0973                  73.209999       76.599998      141.356913               0                 Open   ;
 link_0990            node_0973            node_2206                      17.65       76.599998      141.356913               0                 Open   ;
 link_1001            node_2206            node_2210                  55.709999       76.599998      141.356913               0                 Open   ;
 link_1032            node_2220            node_0984                      40.07             178      141.356913               0                 Open   ;
 link_1059            node_1037            node_2220                  26.450001             178      141.356913               0                 Open   ;
 link_1094            node_1064            node_1091                      12.16      101.599998       42.126802               0                 Open   ;
 link_1146            node_1121            node_1120                       2.56       72.199997      278.820632               0                 Open   ;
 link_1147            node_1122            node_1121                      14.01       72.199997      278.820632               0                 Open   ;
 link_1148            node_1122            node_2260                       9.95       72.199997      278.820632               0                 Open   ;
 link_1202            node_1171            node_1137                      42.02      144.800003      112.579244               0                 Open   ;
 link_1269            node_1223            node_2307                      45.41             178      141.356913               0                 Open   ;
 link_1299            node_2307            node_1262                      10.42             178      141.356913               0                 Open   ;
 link_1371            node_1315            node_1311                       6.79       50.799999       42.126802               0                 Open   ;
 link_1400            node_1342            node_1371                  20.200001             178       138.89641               0                 Open   ;
 link_1420            node_1363            node_1340                      13.88       79.199997      112.579244               0                 Open   ;
 link_1430            node_2350            node_1363                  45.299999       79.199997      112.579244               0                 Open   ;
 link_1444            node_1385            node_1388                      35.09      101.599998       138.89641               0                 Open   ;
 link_1446            node_1388            node_1386                       2.53      101.599998       138.89641               0                 Open   ;
 link_1447            node_1388            node_1402                       5.42       76.599998       138.89641               0                 Open   ;
 link_1453            node_1393            node_1399                        1.3       72.199997      112.579244               0                 Open   ;
 link_1638            node_1559            node_1583                  51.610001             203       42.126802               0                 Open   ;
 link_1668            node_2428            node_1583                       2.62      101.599998      110.285592               0                 Open   ;
 link_1670            node_1583            node_1584                      10.63             203       42.126802               0                 Open   ;
 link_1675            node_1589            node_1596                       4.84             203       42.126802               0                 Open   ;
 link_1679            node_1595            node_1606                       4.09      101.599998       42.126802               0                 Open   ;
 link_1683            node_1602            node_1596                       4.51      152.199997       42.126802               0                 Open   ;
 link_1687            node_1606            node_1609                       1.96      101.599998       42.126802               0                 Open   ;
 link_1768            node_1685            node_2439                  69.260002      101.599998       42.126802               0                 Open   ;
 link_1769            node_1685            node_2446                  67.360001       76.599998       42.126802               0                 Open   ;
 link_1776            node_2456            node_1685                  23.040001      101.599998       42.126802               0                 Open   ;
 link_1805            node_1718            node_2456                  61.610001      101.599998       42.126802               0                 Open   ;
 link_1913            node_1801            node_1800                      16.23             203      119.082185               0                 Open   ;
 link_1914            node_1802            node_1801                       1.15             203      119.082185               0                 Open   ;
 link_1917            node_1805            node_1802                       1.06             203      119.082185               0                 Open   ;
 link_1923            node_1813            node_1807                       1.25             203      119.082185               0                 Open   ;
 link_1993            node_1872            node_1876                      48.02       76.599998       33.736564               0                 Open   ;
 link_2026            node_2547            node_1901                       1.18             158      278.820632               0                 Open   ;
 valve_2606           node_1420            node_1421                          1           100.2             200               0                 Open   ;
 valve_2605           node_0684            node_0683                          2             100             200               0                 Open   ;
 new-pipe-24          node_1925            node_0055               22.586100626    37.465324429             100               0                 Open   ;
 new-pipe-26          node_0056            node_0041               22.586100626    106.02213574             100               0                 Open   ;
 new-pipe-37          node_0070            node_1938               22.586100626    92.159644865             100               0                 Open   ;
 new-pipe-65          node_0107            node_0116               22.586100626    221.88806348             100               0                 Open   ;
 new-pipe-79          node_0133            node_0055               22.586100626    59.003671249             100               0                 Open   ;
 new-pipe-84          node_0111            node_1961               22.586100626     123.3758105             100               0                 Open   ;
 new-pipe-97          node_0159            node_1961               22.586100626    141.41260645             100               0                 Open   ;
 new-pipe-99          node_0154            node_0173               22.586100626    209.18299139             100               0                 Open   ;
 new-pipe-100         node_0168            node_0154               22.586100626    102.77424681             100               0                 Open   ;
 new-pipe-110         node_0173            node_0168               22.586100626    196.23963432             100               0                 Open   ;
 new-pipe-112         node_0183            node_0071               22.586100626    56.078411093             100               0                 Open   ;
 new-pipe-121         node_0210            node_0133               22.586100626    80.572073835             100               0                 Open   ;
 new-pipe-132         node_0246            node_0183               22.586100626    78.450737488             100               0                 Open   ;
 new-pipe-140         node_0307            node_0246               22.586100626    116.84380743             100               0                 Open   ;